<?xml version="1.0" encoding="UTF-8"?>

<!-- generated on 2025-02-23 22:12:03.025844 by osmWebWizard.py UNKNOWN
<configuration>
    <net-file value="/Users/roshanthapa/Sumo/2025-02-23-22-11-51/osm.net.xml.gz"/>
    <output-trip-file value="/Users/roshanthapa/Sumo/2025-02-23-22-11-51/osm.passenger.trips.xml"/>
    <route-file value="/Users/roshanthapa/Sumo/2025-02-23-22-11-51/osm.passenger.rou.xml"/>
    <prefix value="veh"/>
    <trip-attributes value="departLane=&quot;best&quot;"/>
    <fringe-start-attributes value="departSpeed=&quot;max&quot;"/>
    <vehicle-class value="passenger"/>
    <lanes value="True"/>
    <fringe-factor value="5"/>
    <allow-fringe.min-length value="1000.0"/>
    <via-edge-types value="highway.motorway,highway.motorway_link,highway.trunk_link,highway.primary_link,highway.secondary_link,highway.tertiary_link"/>
    <min-distance value="300.0"/>
    <min-distance.fringe value="10.0"/>
    <remove-loops value="True"/>
    <validate value="True"/>
    <insertion-density value="12.0"/>
</configuration>
-->

<!-- generated on 2025-02-23 22:12:02 by Eclipse SUMO duarouter Version 1.22.0
<duarouterConfiguration xmlns:xsi="http://www.w3.org/2001/XMLSchema-instance" xsi:noNamespaceSchemaLocation="http://sumo.dlr.de/xsd/duarouterConfiguration.xsd">

    <input>
        <net-file value="/Users/roshanthapa/Sumo/2025-02-23-22-11-51/osm.net.xml.gz"/>
        <route-files value="/Users/roshanthapa/Sumo/2025-02-23-22-11-51/osm.passenger.trips.xml"/>
    </input>

    <output>
        <output-file value="/Users/roshanthapa/Sumo/2025-02-23-22-11-51/osm.passenger.trips.xml.tmp"/>
        <alternatives-output value="NUL"/>
        <write-trips value="true"/>
    </output>

    <processing>
        <remove-loops value="true"/>
    </processing>

    <time>
        <begin value="0.0"/>
        <end value="3600.0"/>
    </time>

    <report>
        <no-warnings value="true"/>
        <ignore-errors value="true"/>
        <no-step-log value="true"/>
    </report>

</duarouterConfiguration>
-->

<routes xmlns:xsi="http://www.w3.org/2001/XMLSchema-instance" xsi:noNamespaceSchemaLocation="http://sumo.dlr.de/xsd/routes_file.xsd">
    <vType id="veh_passenger" vClass="passenger"/>
    <trip id="veh0" type="veh_passenger" depart="0.00" departLane="best" from="120287392" to="108194599#1"/>
    <trip id="veh1" type="veh_passenger" depart="4.69" departLane="best" departSpeed="max" from="-389362087" to="364313529#7"/>
    <trip id="veh2" type="veh_passenger" depart="9.37" departLane="best" departSpeed="max" from="317255523" to="349901716"/>
    <trip id="veh3" type="veh_passenger" depart="14.06" departLane="best" departSpeed="max" from="-424034779" to="-108194599#7"/>
    <trip id="veh4" type="veh_passenger" depart="18.74" departLane="best" from="-341298228#0" to="-120287392"/>
    <trip id="veh5" type="veh_passenger" depart="23.43" departLane="best" from="108194599#3" to="-341298228#0"/>
    <trip id="veh6" type="veh_passenger" depart="28.11" departLane="best" from="-341298756" to="24622459#11"/>
    <trip id="veh7" type="veh_passenger" depart="32.80" departLane="best" from="389362091" to="108166109#4"/>
    <trip id="veh8" type="veh_passenger" depart="37.48" departLane="best" from="389346656#1" to="389341737#0"/>
    <trip id="veh9" type="veh_passenger" depart="42.17" departLane="best" departSpeed="max" from="-414895568" to="24811176#4"/>
    <trip id="veh10" type="veh_passenger" depart="46.85" departLane="best" from="57376443#15" to="524596053#10"/>
    <trip id="veh12" type="veh_passenger" depart="56.22" departLane="best" departSpeed="max" from="419138643" to="24622459#7"/>
    <trip id="veh13" type="veh_passenger" depart="60.91" departLane="best" from="389362086" to="390572425"/>
    <trip id="veh14" type="veh_passenger" depart="65.60" departLane="best" departSpeed="max" from="-419139322" to="236191330#1"/>
    <trip id="veh15" type="veh_passenger" depart="70.28" departLane="best" from="414895565#1" to="24811176#6"/>
    <trip id="veh16" type="veh_passenger" depart="74.97" departLane="best" from="421041689#2" to="24613056#14"/>
    <trip id="veh17" type="veh_passenger" depart="79.65" departLane="best" from="24622459#2" to="108195411#2"/>
    <trip id="veh18" type="veh_passenger" depart="84.34" departLane="best" departSpeed="max" from="-341963092#1" to="421041683#2"/>
    <trip id="veh19" type="veh_passenger" depart="89.02" departLane="best" departSpeed="max" from="-120287396" to="-379514014#0"/>
    <trip id="veh20" type="veh_passenger" depart="93.71" departLane="best" departSpeed="max" from="-1244788540" to="-416251595"/>
    <trip id="veh22" type="veh_passenger" depart="103.08" departLane="best" departSpeed="max" from="-389346654#1" to="524596054#12"/>
    <trip id="veh23" type="veh_passenger" depart="107.76" departLane="best" from="120287401#2" to="24811176#0"/>
    <trip id="veh24" type="veh_passenger" depart="112.45" departLane="best" from="-24622459#9" to="390572425"/>
    <trip id="veh25" type="veh_passenger" depart="117.13" departLane="best" from="-24622459#2" to="-57376443#13"/>
    <trip id="veh26" type="veh_passenger" depart="121.82" departLane="best" from="842613269#2" to="364313529#4"/>
    <trip id="veh27" type="veh_passenger" depart="126.50" departLane="best" departSpeed="max" from="-341963092#1" to="-108194601#2"/>
    <trip id="veh28" type="veh_passenger" depart="131.19" departLane="best" from="-407212999" to="-416250748"/>
    <trip id="veh29" type="veh_passenger" depart="135.88" departLane="best" departSpeed="max" from="422792046#0" to="423616129#3"/>
    <trip id="veh30" type="veh_passenger" depart="140.56" departLane="best" departSpeed="max" from="120287403" to="-597595262#0"/>
    <trip id="veh31" type="veh_passenger" depart="145.25" departLane="best" from="524596053#4" to="-108194599#4"/>
    <trip id="veh32" type="veh_passenger" depart="149.93" departLane="best" from="-389341739#1" to="-341256677#1"/>
    <trip id="veh33" type="veh_passenger" depart="154.62" departLane="best" from="108166108#0" to="414895563#0"/>
    <trip id="veh34" type="veh_passenger" depart="159.30" departLane="best" from="-108194598#2" to="449647790"/>
    <trip id="veh35" type="veh_passenger" depart="163.99" departLane="best" from="422792046#1" to="364313529#1"/>
    <trip id="veh36" type="veh_passenger" depart="168.67" departLane="best" from="-120287402#4" to="-108218595#1"/>
    <trip id="veh37" type="veh_passenger" depart="173.36" departLane="best" departSpeed="max" from="-124841577#1" to="340779319#1"/>
    <trip id="veh38" type="veh_passenger" depart="178.04" departLane="best" from="364313531#1" to="-842613269#0"/>
    <trip id="veh39" type="veh_passenger" depart="182.73" departLane="best" departSpeed="max" from="-1158067335" to="-57376443#4"/>
    <trip id="veh40" type="veh_passenger" depart="187.41" departLane="best" departSpeed="max" from="901486250" to="-120409122#3"/>
    <trip id="veh41" type="veh_passenger" depart="192.10" departLane="best" departSpeed="max" from="597595262#0" to="424046551"/>
    <trip id="veh42" type="veh_passenger" depart="196.79" departLane="best" from="-108166109#5" to="389362090#0"/>
    <trip id="veh43" type="veh_passenger" depart="201.47" departLane="best" from="239084484" to="124841577#0"/>
    <trip id="veh44" type="veh_passenger" depart="206.16" departLane="best" departSpeed="max" from="-389346654#1" to="341256685"/>
    <trip id="veh45" type="veh_passenger" depart="210.84" departLane="best" from="-126708940#0" to="108166109#0"/>
    <trip id="veh46" type="veh_passenger" depart="215.53" departLane="best" departSpeed="max" from="-449488899" to="-57375885#2"/>
    <trip id="veh47" type="veh_passenger" depart="220.21" departLane="best" departSpeed="max" from="422792046#0" to="-414895565#0"/>
    <trip id="veh48" type="veh_passenger" depart="224.90" departLane="best" from="-524596054#13" to="-340779319#6"/>
    <trip id="veh49" type="veh_passenger" depart="229.58" departLane="best" from="-524596053#10" to="425064094"/>
    <trip id="veh50" type="veh_passenger" depart="234.27" departLane="best" from="-400732036#2" to="341256683#2"/>
    <trip id="veh51" type="veh_passenger" depart="238.95" departLane="best" departSpeed="max" from="108218595#0" to="-24811176#2"/>
    <trip id="veh52" type="veh_passenger" depart="243.64" departLane="best" from="363967164" to="-120725678"/>
    <trip id="veh53" type="veh_passenger" depart="248.32" departLane="best" from="108166108#0" to="-449488901#0"/>
    <trip id="veh54" type="veh_passenger" depart="253.01" departLane="best" from="-108194594#4" to="524596053#9"/>
    <trip id="veh55" type="veh_passenger" depart="257.69" departLane="best" from="422792046#1" to="421504165"/>
    <trip id="veh56" type="veh_passenger" depart="262.38" departLane="best" from="-400936793#1" to="-108222001#2"/>
    <trip id="veh57" type="veh_passenger" depart="267.07" departLane="best" departSpeed="max" from="422792046#0" to="524596054#7"/>
    <trip id="veh58" type="veh_passenger" depart="271.75" departLane="best" from="-120287401#0" to="108222001#6"/>
    <trip id="veh59" type="veh_passenger" depart="276.44" departLane="best" from="-119997697#0" to="414895557"/>
    <trip id="veh60" type="veh_passenger" depart="281.12" departLane="best" from="341298228#2" to="24613056#2"/>
    <trip id="veh61" type="veh_passenger" depart="285.81" departLane="best" departSpeed="max" from="-514011131" to="225027857#1"/>
    <trip id="veh62" type="veh_passenger" depart="290.49" departLane="best" from="-389341739#1" to="425286974"/>
    <trip id="veh63" type="veh_passenger" depart="295.18" departLane="best" departSpeed="max" from="-424046551" to="-363967162#0"/>
    <trip id="veh64" type="veh_passenger" depart="299.86" departLane="best" departSpeed="max" from="-597595266#1" to="390572425"/>
    <trip id="veh65" type="veh_passenger" depart="304.55" departLane="best" from="-341256683#0" to="-423610109"/>
    <trip id="veh66" type="veh_passenger" depart="309.23" departLane="best" from="901168885" to="341257324"/>
    <trip id="veh67" type="veh_passenger" depart="313.92" departLane="best" departSpeed="max" from="-425286974" to="120287401#1"/>
    <trip id="veh68" type="veh_passenger" depart="318.60" departLane="best" departSpeed="max" from="-236191330#1" to="-364313530"/>
    <trip id="veh69" type="veh_passenger" depart="323.29" departLane="best" from="-414895565#0" to="24622459#11"/>
    <trip id="veh70" type="veh_passenger" depart="327.98" departLane="best" departSpeed="max" from="-341963092#1" to="-364313529#2"/>
    <trip id="veh71" type="veh_passenger" depart="332.66" departLane="best" from="-119997697#3" to="341256679#0"/>
    <trip id="veh72" type="veh_passenger" depart="337.35" departLane="best" departSpeed="max" from="-341963092#1" to="500858479"/>
    <trip id="veh73" type="veh_passenger" depart="342.03" departLane="best" departSpeed="max" from="421041689#0" to="-119997697#3"/>
    <trip id="veh75" type="veh_passenger" depart="351.40" departLane="best" departSpeed="max" from="-341257324" to="24613056#9"/>
    <trip id="veh76" type="veh_passenger" depart="356.09" departLane="best" from="-524596054#5" to="24613048"/>
    <trip id="veh77" type="veh_passenger" depart="360.77" departLane="best" from="-514011130#0" to="414897828"/>
    <trip id="veh78" type="veh_passenger" depart="365.46" departLane="best" from="-108195411#2" to="-341256687#0"/>
    <trip id="veh79" type="veh_passenger" depart="370.14" departLane="best" from="120409122#2" to="1022485761"/>
    <trip id="veh80" type="veh_passenger" depart="374.83" departLane="best" departSpeed="max" from="-424046551" to="-108194601#6"/>
    <trip id="veh82" type="veh_passenger" depart="384.20" departLane="best" from="769596132" to="-120633674"/>
    <trip id="veh83" type="veh_passenger" depart="388.88" departLane="best" departSpeed="max" from="-423607314#1" to="524596053#4"/>
    <trip id="veh84" type="veh_passenger" depart="393.57" departLane="best" from="421041689#2" to="-400936783"/>
    <trip id="veh85" type="veh_passenger" depart="398.26" departLane="best" from="-317255521#0" to="108194594#0"/>
    <trip id="veh86" type="veh_passenger" depart="402.94" departLane="best" departSpeed="max" from="-424034779" to="-416251595"/>
    <trip id="veh87" type="veh_passenger" depart="407.63" departLane="best" from="-364313529#5" to="524596053#4"/>
    <trip id="veh88" type="veh_passenger" depart="412.31" departLane="best" departSpeed="max" from="-426288751" to="424046551"/>
    <trip id="veh89" type="veh_passenger" depart="417.00" departLane="best" from="804139276" to="-108220915#0"/>
    <trip id="veh90" type="veh_passenger" depart="421.68" departLane="best" from="901489950#0" to="-422792046#2"/>
    <trip id="veh91" type="veh_passenger" depart="426.37" departLane="best" departSpeed="max" from="419138643" to="-317255521#0"/>
    <trip id="veh92" type="veh_passenger" depart="431.05" departLane="best" from="-524596053#4" to="-363967165#0"/>
    <trip id="veh93" type="veh_passenger" depart="435.74" departLane="best" from="-423607314#0" to="-108222001#3"/>
    <trip id="veh95" type="veh_passenger" depart="445.11" departLane="best" departSpeed="max" from="-389346654#1" to="414897828"/>
    <trip id="veh96" type="veh_passenger" depart="449.79" departLane="best" from="-449488901#2" to="-842613269#2"/>
    <trip id="veh97" type="veh_passenger" depart="454.48" departLane="best" from="57376443#15" to="-835319748"/>
    <trip id="veh98" type="veh_passenger" depart="459.17" departLane="best" from="835319748" to="389362089"/>
    <trip id="veh99" type="veh_passenger" depart="463.85" departLane="best" from="-24622459#11" to="-421041689#3"/>
    <trip id="veh100" type="veh_passenger" depart="468.54" departLane="best" departSpeed="max" from="597595261" to="-24613056#4"/>
    <trip id="veh101" type="veh_passenger" depart="473.22" departLane="best" departSpeed="max" from="-724465222" to="406837201#4"/>
    <trip id="veh102" type="veh_passenger" depart="477.91" departLane="best" from="-108223862#3" to="24622459#0"/>
    <trip id="veh103" type="veh_passenger" depart="482.59" departLane="best" from="-524596054#2" to="424024272#2"/>
    <trip id="veh104" type="veh_passenger" depart="487.28" departLane="best" departSpeed="max" from="-24622459#12" to="-57376443#15"/>
    <trip id="veh105" type="veh_passenger" depart="491.96" departLane="best" departSpeed="max" from="-120287396" to="-341256679#2"/>
    <trip id="veh106" type="veh_passenger" depart="496.65" departLane="best" from="108194601#4" to="349901716"/>
    <trip id="veh107" type="veh_passenger" depart="501.33" departLane="best" departSpeed="max" from="-341963137" to="-239085125#1"/>
    <trip id="veh108" type="veh_passenger" depart="506.02" departLane="best" from="-424715293" to="-400732036#0"/>
    <trip id="veh109" type="veh_passenger" depart="510.70" departLane="best" from="108194601#3" to="24811176#6"/>
    <trip id="veh110" type="veh_passenger" depart="515.39" departLane="best" departSpeed="max" from="-424034779" to="24622459#0"/>
    <trip id="veh111" type="veh_passenger" depart="520.07" departLane="best" from="-57376443#15" to="524596054#11"/>
    <trip id="veh112" type="veh_passenger" depart="524.76" departLane="best" departSpeed="max" from="-341256683#2" to="389362088"/>
    <trip id="veh113" type="veh_passenger" depart="529.45" departLane="best" departSpeed="max" from="-349901716" to="-597595262#0"/>
    <trip id="veh114" type="veh_passenger" depart="534.13" departLane="best" from="124841579#1" to="-421498445"/>
    <trip id="veh115" type="veh_passenger" depart="538.82" departLane="best" from="120287391#1" to="108194599#3"/>
    <trip id="veh116" type="veh_passenger" depart="543.50" departLane="best" departSpeed="max" from="901486250" to="-842613269#2"/>
    <trip id="veh117" type="veh_passenger" depart="548.19" departLane="best" departSpeed="max" from="-389346654#1" to="524596054#10"/>
    <trip id="veh118" type="veh_passenger" depart="552.87" departLane="best" from="423609506#0" to="425935790"/>
    <trip id="veh119" type="veh_passenger" depart="557.56" departLane="best" from="-416251590" to="24811176#5"/>
    <trip id="veh121" type="veh_passenger" depart="566.93" departLane="best" departSpeed="max" from="120287403" to="-108166109#5"/>
    <trip id="veh122" type="veh_passenger" depart="571.61" departLane="best" from="-400936793#0" to="-421052815#1"/>
    <trip id="veh123" type="veh_passenger" depart="576.30" departLane="best" from="120409122#2" to="524596054#13"/>
    <trip id="veh124" type="veh_passenger" depart="580.98" departLane="best" from="-239085125#4" to="-239084178"/>
    <trip id="veh125" type="veh_passenger" depart="585.67" departLane="best" departSpeed="max" from="-124841577#1" to="236191330#1"/>
    <trip id="veh126" type="veh_passenger" depart="590.36" departLane="best" from="-389362086" to="24622459#7"/>
    <trip id="veh127" type="veh_passenger" depart="595.04" departLane="best" from="-596814957#0" to="-341942279#1"/>
    <trip id="veh128" type="veh_passenger" depart="599.73" departLane="best" departSpeed="max" from="120287390" to="-414895565#1"/>
    <trip id="veh129" type="veh_passenger" depart="604.41" departLane="best" from="-524596053#6" to="500858479"/>
    <trip id="veh130" type="veh_passenger" depart="609.10" departLane="best" departSpeed="max" from="416251595" to="-120287403"/>
    <trip id="veh131" type="veh_passenger" depart="613.78" departLane="best" departSpeed="max" from="-424046551" to="-416251594#7"/>
    <trip id="veh132" type="veh_passenger" depart="618.47" departLane="best" from="-108166109#0" to="414895563#1"/>
    <trip id="veh133" type="veh_passenger" depart="623.15" departLane="best" departSpeed="max" from="120287390" to="-414821108"/>
    <trip id="veh134" type="veh_passenger" depart="627.84" departLane="best" from="-340779319#1" to="236191330#1"/>
    <trip id="veh135" type="veh_passenger" depart="632.52" departLane="best" departSpeed="max" from="-425064093" to="108166109#8"/>
    <trip id="veh136" type="veh_passenger" depart="637.21" departLane="best" from="-451818742#2" to="-225027857#0"/>
    <trip id="veh137" type="veh_passenger" depart="641.89" departLane="best" from="416250753#2" to="-24613056#9"/>
    <trip id="veh138" type="veh_passenger" depart="646.58" departLane="best" from="-403999434" to="449647790"/>
    <trip id="veh139" type="veh_passenger" depart="651.26" departLane="best" departSpeed="max" from="379514014#0" to="424046551"/>
    <trip id="veh141" type="veh_passenger" depart="660.64" departLane="best" from="-364313529#5" to="-120409122#2"/>
    <trip id="veh142" type="veh_passenger" depart="665.32" departLane="best" departSpeed="max" from="363967165#0" to="426288751"/>
    <trip id="veh143" type="veh_passenger" depart="670.01" departLane="best" from="-24622459#11" to="524596053#9"/>
    <trip id="veh144" type="veh_passenger" depart="674.69" departLane="best" departSpeed="max" from="421041695" to="597595266#1"/>
    <trip id="veh145" type="veh_passenger" depart="679.38" departLane="best" from="389362095" to="426288751"/>
    <trip id="veh146" type="veh_passenger" depart="684.06" departLane="best" from="-108194599#1" to="400732036#4"/>
    <trip id="veh147" type="veh_passenger" depart="688.75" departLane="best" departSpeed="max" from="-414895561" to="-524596054#0"/>
    <trip id="veh148" type="veh_passenger" depart="693.43" departLane="best" from="389341739#0" to="425064093"/>
    <trip id="veh149" type="veh_passenger" depart="698.12" departLane="best" from="389362095" to="416146908#0"/>
    <trip id="veh150" type="veh_passenger" depart="702.80" departLane="best" from="364313529#4" to="-124841579#0"/>
    <trip id="veh151" type="veh_passenger" depart="707.49" departLane="best" from="421052815#0" to="424046551"/>
    <trip id="veh152" type="veh_passenger" depart="712.17" departLane="best" from="341942279#0" to="421022100"/>
    <trip id="veh153" type="veh_passenger" depart="716.86" departLane="best" departSpeed="max" from="-449647790" to="-422792046#1"/>
    <trip id="veh154" type="veh_passenger" depart="721.55" departLane="best" from="-108194599#0" to="-341256694#0"/>
    <trip id="veh155" type="veh_passenger" depart="726.23" departLane="best" departSpeed="max" from="-414895559" to="425064093"/>
    <trip id="veh156" type="veh_passenger" depart="730.92" departLane="best" departSpeed="max" from="597595261" to="-416251595"/>
    <trip id="veh157" type="veh_passenger" depart="735.60" departLane="best" from="120287395#1" to="-597595266#0"/>
    <trip id="veh158" type="veh_passenger" depart="740.29" departLane="best" departSpeed="max" from="725094735#0" to="1244788542"/>
    <trip id="veh159" type="veh_passenger" depart="744.97" departLane="best" from="-524596054#7" to="-239084178"/>
    <trip id="veh160" type="veh_passenger" depart="749.66" departLane="best" departSpeed="max" from="597595262#0" to="-340779319#4"/>
    <trip id="veh161" type="veh_passenger" depart="754.34" departLane="best" from="596375998" to="414933497#1"/>
    <trip id="veh162" type="veh_passenger" depart="759.03" departLane="best" departSpeed="max" from="-124841577#1" to="108166109#0"/>
    <trip id="veh163" type="veh_passenger" depart="763.71" departLane="best" from="-303570236#0" to="423616129#2"/>
    <trip id="veh164" type="veh_passenger" depart="768.40" departLane="best" from="108195409#4" to="120287396"/>
    <trip id="veh165" type="veh_passenger" depart="773.08" departLane="best" from="-421041683#3" to="24613056#14"/>
    <trip id="veh166" type="veh_passenger" depart="777.77" departLane="best" from="-364488539" to="389362086"/>
    <trip id="veh167" type="veh_passenger" depart="782.45" departLane="best" from="108166108#2" to="524596053#6"/>
    <trip id="veh168" type="veh_passenger" depart="787.14" departLane="best" departSpeed="max" from="-597595266#1" to="389362089"/>
    <trip id="veh169" type="veh_passenger" depart="791.83" departLane="best" departSpeed="max" from="-416146908#1" to="-119997697#1"/>
    <trip id="veh170" type="veh_passenger" depart="796.51" departLane="best" departSpeed="max" from="-406837201#4" to="423616129#2"/>
    <trip id="veh171" type="veh_passenger" depart="801.20" departLane="best" from="24811176#2" to="-421498445"/>
    <trip id="veh172" type="veh_passenger" depart="805.88" departLane="best" from="-406837201#2" to="-804139276"/>
    <trip id="veh173" type="veh_passenger" depart="810.57" departLane="best" departSpeed="max" from="-423607314#1" to="-421041689#1"/>
    <trip id="veh174" type="veh_passenger" depart="815.25" departLane="best" departSpeed="max" from="-236191333" to="-842613269#0"/>
    <trip id="veh175" type="veh_passenger" depart="819.94" departLane="best" from="451818742#1" to="24811176#4"/>
    <trip id="veh176" type="veh_passenger" depart="824.62" departLane="best" departSpeed="max" from="-400732036#4" to="225027857#1"/>
    <trip id="veh177" type="veh_passenger" depart="829.31" departLane="best" from="108166108#0" to="421041683#1"/>
    <trip id="veh178" type="veh_passenger" depart="833.99" departLane="best" departSpeed="max" from="-425064093" to="24613056#5"/>
    <trip id="veh179" type="veh_passenger" depart="838.68" departLane="best" departSpeed="max" from="120287403" to="-108194601#3"/>
    <trip id="veh180" type="veh_passenger" depart="843.36" departLane="best" departSpeed="max" from="-425935790" to="-363967165#0"/>
    <trip id="veh181" type="veh_passenger" depart="848.05" departLane="best" departSpeed="max" from="379514014#0" to="-317255522"/>
    <trip id="veh182" type="veh_passenger" depart="852.74" departLane="best" from="119997697#3" to="524596053#0"/>
    <trip id="veh183" type="veh_passenger" depart="857.42" departLane="best" from="403999434" to="407212999"/>
    <trip id="veh184" type="veh_passenger" depart="862.11" departLane="best" from="126708940#1" to="-364313530"/>
    <trip id="veh185" type="veh_passenger" depart="866.79" departLane="best" from="341256681#0" to="-108194599#1"/>
    <trip id="veh186" type="veh_passenger" depart="871.48" departLane="best" from="-364313525" to="108195409#1"/>
    <trip id="veh187" type="veh_passenger" depart="876.16" departLane="best" departSpeed="max" from="419138643" to="-120287390"/>
    <trip id="veh188" type="veh_passenger" depart="880.85" departLane="best" from="-424024272#1" to="340779319#6"/>
    <trip id="veh189" type="veh_passenger" depart="885.53" departLane="best" from="-340779319#6" to="-379514014#1"/>
    <trip id="veh190" type="veh_passenger" depart="890.22" departLane="best" from="-524596054#1" to="389362094"/>
    <trip id="veh191" type="veh_passenger" depart="894.90" departLane="best" departSpeed="max" from="120287403" to="-108166109#2"/>
    <trip id="veh192" type="veh_passenger" depart="899.59" departLane="best" departSpeed="max" from="-124841577#1" to="-901168885"/>
    <trip id="veh193" type="veh_passenger" depart="904.27" departLane="best" from="57376443#1" to="-108218595#1"/>
    <trip id="veh194" type="veh_passenger" depart="908.96" departLane="best" from="-364313529#4" to="423616129#3"/>
    <trip id="veh195" type="veh_passenger" depart="913.64" departLane="best" departSpeed="max" from="-449647788" to="416250753#0"/>
    <trip id="veh196" type="veh_passenger" depart="918.33" departLane="best" departSpeed="max" from="124841579#0" to="769596132"/>
    <trip id="veh197" type="veh_passenger" depart="923.02" departLane="best" from="108194601#4" to="524596057#1"/>
    <trip id="veh198" type="veh_passenger" depart="927.70" departLane="best" from="425511949" to="24811176#2"/>
    <trip id="veh199" type="veh_passenger" depart="932.39" departLane="best" from="24811176#2" to="-120287391#3"/>
    <trip id="veh200" type="veh_passenger" depart="937.07" departLane="best" from="-414933497#0" to="225027857#1"/>
    <trip id="veh201" type="veh_passenger" depart="941.76" departLane="best" departSpeed="max" from="-514011131" to="-414821108"/>
    <trip id="veh202" type="veh_passenger" depart="946.44" departLane="best" from="-364313529#2" to="341256683#2"/>
    <trip id="veh203" type="veh_passenger" depart="951.13" departLane="best" from="341298228#2" to="120287402#3"/>
    <trip id="veh204" type="veh_passenger" depart="955.81" departLane="best" from="-108223862#2" to="-416251594#5"/>
    <trip id="veh205" type="veh_passenger" depart="960.50" departLane="best" departSpeed="max" from="-120287396" to="421022100"/>
    <trip id="veh206" type="veh_passenger" depart="965.18" departLane="best" from="389346656#1" to="-437332099"/>
    <trip id="veh207" type="veh_passenger" depart="969.87" departLane="best" departSpeed="max" from="-724465222" to="-24622459#11"/>
    <trip id="veh208" type="veh_passenger" depart="974.55" departLane="best" departSpeed="max" from="-341963092#1" to="379514012#2"/>
    <trip id="veh209" type="veh_passenger" depart="979.24" departLane="best" from="24622459#3" to="-108223862#2"/>
    <trip id="veh210" type="veh_passenger" depart="983.93" departLane="best" departSpeed="max" from="-423609506#1" to="126708940#0"/>
    <trip id="veh211" type="veh_passenger" depart="988.61" departLane="best" departSpeed="max" from="-424024272#2" to="341962876#1"/>
    <trip id="veh212" type="veh_passenger" depart="993.30" departLane="best" departSpeed="max" from="-424034779" to="500858479"/>
    <trip id="veh213" type="veh_passenger" depart="997.98" departLane="best" from="108194598#1" to="379514013"/>
    <trip id="veh214" type="veh_passenger" depart="1002.67" departLane="best" from="-421041683#3" to="414895561"/>
    <trip id="veh215" type="veh_passenger" depart="1007.35" departLane="best" from="-421022100" to="108166109#2"/>
    <trip id="veh216" type="veh_passenger" depart="1012.04" departLane="best" from="-414933497#1" to="408518095#1"/>
    <trip id="veh217" type="veh_passenger" depart="1016.72" departLane="best" from="421041683#1" to="-57375885#1"/>
    <trip id="veh218" type="veh_passenger" depart="1021.41" departLane="best" departSpeed="max" from="-424034779" to="406837201#4"/>
    <trip id="veh220" type="veh_passenger" depart="1030.78" departLane="best" from="-341298756" to="-364313529#1"/>
    <trip id="veh221" type="veh_passenger" depart="1035.46" departLane="best" departSpeed="max" from="-425286974" to="-108194599#6"/>
    <trip id="veh222" type="veh_passenger" depart="1040.15" departLane="best" departSpeed="max" from="-414895563#1" to="363967162#1"/>
    <trip id="veh223" type="veh_passenger" depart="1044.83" departLane="best" departSpeed="max" from="-423607314#1" to="-317255520#1"/>
    <trip id="veh224" type="veh_passenger" depart="1049.52" departLane="best" departSpeed="max" from="-500858479" to="24613056#12"/>
    <trip id="veh225" type="veh_passenger" depart="1054.21" departLane="best" from="108222001#4" to="-108194599#4"/>
    <trip id="veh226" type="veh_passenger" depart="1058.89" departLane="best" departSpeed="max" from="-421498446" to="239085125#0"/>
    <trip id="veh227" type="veh_passenger" depart="1063.58" departLane="best" from="-108194599#4" to="341256687#1"/>
    <trip id="veh228" type="veh_passenger" depart="1068.26" departLane="best" from="-239085921" to="-108194599#7"/>
    <trip id="veh229" type="veh_passenger" depart="1072.95" departLane="best" from="-108222001#2" to="-57376443#12"/>
    <trip id="veh230" type="veh_passenger" depart="1077.63" departLane="best" from="-341256690" to="-451818742#1"/>
    <trip id="veh231" type="veh_passenger" depart="1082.32" departLane="best" departSpeed="max" from="341256694#0" to="-57376443#12"/>
    <trip id="veh232" type="veh_passenger" depart="1087.00" departLane="best" from="341256679#3" to="421504165"/>
    <trip id="veh233" type="veh_passenger" depart="1091.69" departLane="best" from="-108194594#4" to="124841577#1"/>
    <trip id="veh234" type="veh_passenger" depart="1096.37" departLane="best" from="901489950#0" to="-524596054#1"/>
    <trip id="veh235" type="veh_passenger" depart="1101.06" departLane="best" from="-120287402#2" to="414897827"/>